* NGSPICE file created from user_analog_project_wrapper.ext - technology: sky130A

.subckt sky130_fd_pr__nfet_g5v0d10v5_6XHUDR a_n242_n264# a_50_n42# a_n108_n42# a_n50_n130#
X0 a_50_n42# a_n50_n130# a_n108_n42# a_n242_n264# sky130_fd_pr__nfet_g5v0d10v5 ad=0.1218 pd=1.42 as=0.1218 ps=1.42 w=0.42 l=0.5
.ends

.subckt sky130_fd_pr__pfet_g5v0d10v5_6ELFTH a_50_n42# a_n50_n139# w_n308_n339# a_n108_n42#
X0 a_50_n42# a_n50_n139# a_n108_n42# w_n308_n339# sky130_fd_pr__pfet_g5v0d10v5 ad=0.1218 pd=1.42 as=0.1218 ps=1.42 w=0.42 l=0.5
.ends

.subckt sky130_fd_pr__nfet_01v8_L7BSKG a_n73_n11# a_n33_n99# a_15_n11# a_n175_n185#
X0 a_15_n11# a_n33_n99# a_n73_n11# a_n175_n185# sky130_fd_pr__nfet_01v8 ad=0.1218 pd=1.42 as=0.1218 ps=1.42 w=0.42 l=0.15
.ends

.subckt sky130_fd_pr__pfet_01v8_LGS3BL a_n73_n64# a_n33_n161# a_15_n64# w_n211_n284#
X0 a_15_n64# a_n33_n161# a_n73_n64# w_n211_n284# sky130_fd_pr__pfet_01v8 ad=0.29 pd=2.58 as=0.29 ps=2.58 w=1 l=0.15
.ends

.subckt sky130_fd_pr__nfet_01v8_64Z3AY a_15_n131# a_n175_n243# a_n33_91# a_n73_n131#
X0 a_15_n131# a_n33_91# a_n73_n131# a_n175_n243# sky130_fd_pr__nfet_01v8 ad=0.29 pd=2.58 as=0.29 ps=2.58 w=1 l=0.15
.ends

.subckt rc_osc_level_shifter out_h outb_h in_l dvss inb_l avss dvdd avdd
XXM15 outb_h out_h avdd m1_1336_n1198# sky130_fd_pr__pfet_g5v0d10v5_6ELFTH
XXM16 avdd outb_h avdd m1_1336_n1198# sky130_fd_pr__pfet_g5v0d10v5_6ELFTH
XXM17 avss outb_h avss in_l sky130_fd_pr__nfet_g5v0d10v5_6XHUDR
XXM18 avss avss out_h inb_l sky130_fd_pr__nfet_g5v0d10v5_6XHUDR
XXM19 m1_2204_n1198# out_h avdd avdd sky130_fd_pr__pfet_g5v0d10v5_6ELFTH
XXM7 dvdd in_l inb_l dvdd sky130_fd_pr__pfet_01v8_LGS3BL
XXM8 inb_l dvss in_l dvss sky130_fd_pr__nfet_01v8_64Z3AY
XXM20 m1_2204_n1198# outb_h avdd out_h sky130_fd_pr__pfet_g5v0d10v5_6ELFTH
.ends

.subckt sky130_fd_pr__nfet_01v8_L9WNCD a_15_n19# a_n175_n193# a_n73_n19# a_n33_n107#
X0 a_15_n19# a_n33_n107# a_n73_n19# a_n175_n193# sky130_fd_pr__nfet_01v8 ad=0.145 pd=1.58 as=0.145 ps=1.58 w=0.5 l=0.15
.ends

.subckt sky130_fd_pr__diode_pw2nd_05v5_FT76RJ__3 a_n147_n147# a_n45_n45#
X0 a_n147_n147# a_n45_n45# sky130_fd_pr__diode_pw2nd_05v5 perim=1.8e+06 area=2.025e+11
.ends

.subckt sky130_fd_pr__pfet_01v8_856REK a_63_n150# a_15_181# w_n263_n369# a_n81_n247#
+ a_n125_n150#
X0 a_63_n150# a_15_181# a_n33_n150# w_n263_n369# sky130_fd_pr__pfet_01v8 ad=0.465 pd=3.62 as=0.2475 ps=1.83 w=1.5 l=0.15
X1 a_n33_n150# a_n81_n247# a_n125_n150# w_n263_n369# sky130_fd_pr__pfet_01v8 ad=0.2475 pd=1.83 as=0.465 ps=3.62 w=1.5 l=0.15
.ends

.subckt sky130_fd_pr__res_xhigh_po_0p35_NVJ5PF a_2372_n1166# a_3700_n1166# a_n2276_734#
+ a_n1944_n1166# a_n3272_734# a_n3438_n1166# a_n782_n1166# a_1376_n1166# a_1542_734#
+ a_4696_734# a_2704_n1166# a_546_n1166# a_546_734# a_1708_n1166# a_n1114_734# a_n4268_734#
+ a_n118_734# a_2538_734# a_n2110_734# a_n2442_n1166# a_3534_734# a_3202_n1166# a_n1446_n1166#
+ a_4530_734# a_n284_n1166# a_4696_n1166# a_n3106_734# a_2206_n1166# a_n4102_734#
+ a_1874_734# a_n616_n1166# a_n450_734# a_2870_734# a_878_734# a_1210_n1166# a_n1446_734#
+ a_n4766_n1166# a_n2442_734# a_3866_734# a_4198_n1166# a_4862_734# a_878_n1166# a_n118_n1166#
+ a_712_734# a_n3438_734# a_n3770_n1166# a_1708_734# a_n4434_734# a_2704_734# a_4530_n1166#
+ a_n2774_n1166# a_n782_734# a_3700_734# a_n4268_n1166# a_n5062_n1296# a_3534_n1166#
+ a_n1778_n1166# a_n1778_734# a_n2774_734# a_2538_n1166# a_n3770_734# a_n3272_n1166#
+ a_n4600_n1166# a_n948_n1166# a_1044_734# a_380_n1166# a_4198_734# a_4032_n1166#
+ a_n2276_n1166# a_2040_734# a_n3604_n1166# a_n1612_734# a_1542_n1166# a_n4766_734#
+ a_n616_734# a_712_n1166# a_3036_n1166# a_n2608_n1166# a_3036_734# a_n1280_n1166#
+ a_n2608_734# a_4032_734# a_n3604_734# a_n4102_n1166# a_48_734# a_2040_n1166# a_n1612_n1166#
+ a_n4600_734# a_380_734# a_4862_n1166# a_n450_n1166# a_n3106_n1166# a_1044_n1166#
+ a_1376_734# a_214_n1166# a_2372_734# a_3866_n1166# a_n1944_734# a_n948_734# a_n2940_734#
+ a_n2110_n1166# a_3368_734# a_n4932_n1166# a_n1114_n1166# a_1210_734# a_2870_n1166#
+ a_4364_734# a_n3936_734# a_4364_n1166# a_n3936_n1166# a_214_734# a_n4932_734# a_1874_n1166#
+ a_3368_n1166# a_2206_734# a_48_n1166# a_n1280_734# a_n284_734# a_3202_734# a_n2940_n1166#
+ a_n4434_n1166#
X0 a_n4766_734# a_n4766_n1166# a_n5062_n1296# sky130_fd_pr__res_xhigh_po_0p35 l=7.5
X1 a_712_734# a_712_n1166# a_n5062_n1296# sky130_fd_pr__res_xhigh_po_0p35 l=7.5
X2 a_1874_734# a_1874_n1166# a_n5062_n1296# sky130_fd_pr__res_xhigh_po_0p35 l=7.5
X3 a_n3272_734# a_n3272_n1166# a_n5062_n1296# sky130_fd_pr__res_xhigh_po_0p35 l=7.5
X4 a_n1612_734# a_n1612_n1166# a_n5062_n1296# sky130_fd_pr__res_xhigh_po_0p35 l=7.5
X5 a_n3770_734# a_n3770_n1166# a_n5062_n1296# sky130_fd_pr__res_xhigh_po_0p35 l=7.5
X6 a_n782_734# a_n782_n1166# a_n5062_n1296# sky130_fd_pr__res_xhigh_po_0p35 l=7.5
X7 a_n2276_734# a_n2276_n1166# a_n5062_n1296# sky130_fd_pr__res_xhigh_po_0p35 l=7.5
X8 a_n118_734# a_n118_n1166# a_n5062_n1296# sky130_fd_pr__res_xhigh_po_0p35 l=7.5
X9 a_4696_734# a_4696_n1166# a_n5062_n1296# sky130_fd_pr__res_xhigh_po_0p35 l=7.5
X10 a_n4434_734# a_n4434_n1166# a_n5062_n1296# sky130_fd_pr__res_xhigh_po_0p35 l=7.5
X11 a_1542_734# a_1542_n1166# a_n5062_n1296# sky130_fd_pr__res_xhigh_po_0p35 l=7.5
X12 a_n1280_734# a_n1280_n1166# a_n5062_n1296# sky130_fd_pr__res_xhigh_po_0p35 l=7.5
X13 a_3700_734# a_3700_n1166# a_n5062_n1296# sky130_fd_pr__res_xhigh_po_0p35 l=7.5
X14 a_n3438_734# a_n3438_n1166# a_n5062_n1296# sky130_fd_pr__res_xhigh_po_0p35 l=7.5
X15 a_4364_734# a_4364_n1166# a_n5062_n1296# sky130_fd_pr__res_xhigh_po_0p35 l=7.5
X16 a_n948_734# a_n948_n1166# a_n5062_n1296# sky130_fd_pr__res_xhigh_po_0p35 l=7.5
X17 a_2704_734# a_2704_n1166# a_n5062_n1296# sky130_fd_pr__res_xhigh_po_0p35 l=7.5
X18 a_n4102_734# a_n4102_n1166# a_n5062_n1296# sky130_fd_pr__res_xhigh_po_0p35 l=7.5
X19 a_1210_734# a_1210_n1166# a_n5062_n1296# sky130_fd_pr__res_xhigh_po_0p35 l=7.5
X20 a_1708_734# a_1708_n1166# a_n5062_n1296# sky130_fd_pr__res_xhigh_po_0p35 l=7.5
X21 a_3368_734# a_3368_n1166# a_n5062_n1296# sky130_fd_pr__res_xhigh_po_0p35 l=7.5
X22 a_n3106_734# a_n3106_n1166# a_n5062_n1296# sky130_fd_pr__res_xhigh_po_0p35 l=7.5
X23 a_n2774_734# a_n2774_n1166# a_n5062_n1296# sky130_fd_pr__res_xhigh_po_0p35 l=7.5
X24 a_n616_734# a_n616_n1166# a_n5062_n1296# sky130_fd_pr__res_xhigh_po_0p35 l=7.5
X25 a_380_734# a_380_n1166# a_n5062_n1296# sky130_fd_pr__res_xhigh_po_0p35 l=7.5
X26 a_4032_734# a_4032_n1166# a_n5062_n1296# sky130_fd_pr__res_xhigh_po_0p35 l=7.5
X27 a_n2110_734# a_n2110_n1166# a_n5062_n1296# sky130_fd_pr__res_xhigh_po_0p35 l=7.5
X28 a_n4932_734# a_n4932_n1166# a_n5062_n1296# sky130_fd_pr__res_xhigh_po_0p35 l=7.5
X29 a_878_734# a_878_n1166# a_n5062_n1296# sky130_fd_pr__res_xhigh_po_0p35 l=7.5
X30 a_3036_734# a_3036_n1166# a_n5062_n1296# sky130_fd_pr__res_xhigh_po_0p35 l=7.5
X31 a_n1778_734# a_n1778_n1166# a_n5062_n1296# sky130_fd_pr__res_xhigh_po_0p35 l=7.5
X32 a_n3936_734# a_n3936_n1166# a_n5062_n1296# sky130_fd_pr__res_xhigh_po_0p35 l=7.5
X33 a_n2442_734# a_n2442_n1166# a_n5062_n1296# sky130_fd_pr__res_xhigh_po_0p35 l=7.5
X34 a_4862_734# a_4862_n1166# a_n5062_n1296# sky130_fd_pr__res_xhigh_po_0p35 l=7.5
X35 a_n4600_734# a_n4600_n1166# a_n5062_n1296# sky130_fd_pr__res_xhigh_po_0p35 l=7.5
X36 a_n2940_734# a_n2940_n1166# a_n5062_n1296# sky130_fd_pr__res_xhigh_po_0p35 l=7.5
X37 a_546_734# a_546_n1166# a_n5062_n1296# sky130_fd_pr__res_xhigh_po_0p35 l=7.5
X38 a_n1446_734# a_n1446_n1166# a_n5062_n1296# sky130_fd_pr__res_xhigh_po_0p35 l=7.5
X39 a_3866_734# a_3866_n1166# a_n5062_n1296# sky130_fd_pr__res_xhigh_po_0p35 l=7.5
X40 a_n3604_734# a_n3604_n1166# a_n5062_n1296# sky130_fd_pr__res_xhigh_po_0p35 l=7.5
X41 a_2372_734# a_2372_n1166# a_n5062_n1296# sky130_fd_pr__res_xhigh_po_0p35 l=7.5
X42 a_4530_734# a_4530_n1166# a_n5062_n1296# sky130_fd_pr__res_xhigh_po_0p35 l=7.5
X43 a_n4268_734# a_n4268_n1166# a_n5062_n1296# sky130_fd_pr__res_xhigh_po_0p35 l=7.5
X44 a_214_734# a_214_n1166# a_n5062_n1296# sky130_fd_pr__res_xhigh_po_0p35 l=7.5
X45 a_1376_734# a_1376_n1166# a_n5062_n1296# sky130_fd_pr__res_xhigh_po_0p35 l=7.5
X46 a_n2608_734# a_n2608_n1166# a_n5062_n1296# sky130_fd_pr__res_xhigh_po_0p35 l=7.5
X47 a_n1114_734# a_n1114_n1166# a_n5062_n1296# sky130_fd_pr__res_xhigh_po_0p35 l=7.5
X48 a_2040_734# a_2040_n1166# a_n5062_n1296# sky130_fd_pr__res_xhigh_po_0p35 l=7.5
X49 a_3534_734# a_3534_n1166# a_n5062_n1296# sky130_fd_pr__res_xhigh_po_0p35 l=7.5
X50 a_n284_734# a_n284_n1166# a_n5062_n1296# sky130_fd_pr__res_xhigh_po_0p35 l=7.5
X51 a_2538_734# a_2538_n1166# a_n5062_n1296# sky130_fd_pr__res_xhigh_po_0p35 l=7.5
X52 a_4198_734# a_4198_n1166# a_n5062_n1296# sky130_fd_pr__res_xhigh_po_0p35 l=7.5
X53 a_1044_734# a_1044_n1166# a_n5062_n1296# sky130_fd_pr__res_xhigh_po_0p35 l=7.5
X54 a_3202_734# a_3202_n1166# a_n5062_n1296# sky130_fd_pr__res_xhigh_po_0p35 l=7.5
X55 a_n1944_734# a_n1944_n1166# a_n5062_n1296# sky130_fd_pr__res_xhigh_po_0p35 l=7.5
X56 a_n450_734# a_n450_n1166# a_n5062_n1296# sky130_fd_pr__res_xhigh_po_0p35 l=7.5
X57 a_48_734# a_48_n1166# a_n5062_n1296# sky130_fd_pr__res_xhigh_po_0p35 l=7.5
X58 a_2206_734# a_2206_n1166# a_n5062_n1296# sky130_fd_pr__res_xhigh_po_0p35 l=7.5
X59 a_2870_734# a_2870_n1166# a_n5062_n1296# sky130_fd_pr__res_xhigh_po_0p35 l=7.5
.ends

.subckt sky130_fd_pr__pfet_01v8_2Z69BZ w_n211_n226# a_n73_n6# a_15_n6# a_n33_n103#
X0 a_15_n6# a_n33_n103# a_n73_n6# w_n211_n226# sky130_fd_pr__pfet_01v8 ad=0.1218 pd=1.42 as=0.1218 ps=1.42 w=0.42 l=0.15
.ends

.subckt sky130_fd_pr__pfet_g5v0d10v5_T537S5 a_n50_n223# w_n308_n423# a_50_n126# a_n108_n126#
X0 a_50_n126# a_n50_n223# a_n108_n126# w_n308_n423# sky130_fd_pr__pfet_g5v0d10v5 ad=0.3654 pd=3.1 as=0.3654 ps=3.1 w=1.26 l=0.5
.ends

.subckt sky130_ef_ip__rc_osc_16M avdd dvdd ena dout dvss avss
XXM12 avss m1_6428_4585# avss m1_2993_5163# sky130_fd_pr__nfet_g5v0d10v5_6XHUDR
XXM34 avdd m1_1507_5567# avdd m1_1507_5567# sky130_fd_pr__pfet_g5v0d10v5_6ELFTH
XXM23 avss m1_5241_4130# m1_513_6590# rc_osc_level_shifter_0/out_h sky130_fd_pr__nfet_g5v0d10v5_6XHUDR
XXM35 dout rc_osc_level_shifter_0/inb_l dvss dvss sky130_fd_pr__nfet_01v8_L7BSKG
XXM13 avss m1_6642_4785# m1_6428_4585# ena sky130_fd_pr__nfet_g5v0d10v5_6XHUDR
XXM25 avdd m1_1507_5567# avdd m1_3601_5653# sky130_fd_pr__pfet_g5v0d10v5_6ELFTH
XXM24 avdd m1_1507_5567# avdd m1_2985_5653# sky130_fd_pr__pfet_g5v0d10v5_6ELFTH
XXM36 avss m1_2561_4188# m1_1507_5567# rc_osc_level_shifter_0/out_h sky130_fd_pr__nfet_g5v0d10v5_6XHUDR
XXM26 avdd m1_1507_5567# avdd m1_4217_5653# sky130_fd_pr__pfet_g5v0d10v5_6ELFTH
XXM15 m1_2993_5163# m1_4789_4781# avdd m1_5449_5653# sky130_fd_pr__pfet_g5v0d10v5_6ELFTH
XXM16 avss m1_2993_5163# m1_5128_4639# m1_4789_4781# sky130_fd_pr__nfet_g5v0d10v5_6XHUDR
XXM27 avss m1_4016_4639# avss m1_5241_4130# sky130_fd_pr__nfet_g5v0d10v5_6XHUDR
XXM17 avdd m1_1507_5567# avdd m1_4833_5653# sky130_fd_pr__pfet_g5v0d10v5_6ELFTH
XXM28 avss m1_3460_4639# avss m1_5241_4130# sky130_fd_pr__nfet_g5v0d10v5_6XHUDR
Xrc_osc_level_shifter_0 rc_osc_level_shifter_0/out_h rc_osc_level_shifter_0/outb_h
+ ena dvss rc_osc_level_shifter_0/inb_l avss dvdd avdd rc_osc_level_shifter
XXM18 avdd m1_1507_5567# avdd m1_1507_5567# sky130_fd_pr__pfet_g5v0d10v5_6ELFTH
XXM29 avss m1_2904_4639# avss m1_5241_4130# sky130_fd_pr__nfet_g5v0d10v5_6XHUDR
XXM19 avss m1_5128_4639# avss m1_5241_4130# sky130_fd_pr__nfet_g5v0d10v5_6XHUDR
XXM1 avss m1_3128_4787# m1_2904_4639# m1_2993_5163# sky130_fd_pr__nfet_g5v0d10v5_6XHUDR
XXM2 m1_3128_4787# m1_2993_5163# avdd m1_2985_5653# sky130_fd_pr__pfet_g5v0d10v5_6ELFTH
XXM3 m1_3679_4781# m1_3128_4787# avdd m1_3601_5653# sky130_fd_pr__pfet_g5v0d10v5_6ELFTH
XXM4 avss m1_3679_4781# m1_3460_4639# m1_3128_4787# sky130_fd_pr__nfet_g5v0d10v5_6XHUDR
Xsky130_fd_pr__nfet_01v8_L9WNCD_0 dout dvss dvss m1_6642_4785# sky130_fd_pr__nfet_01v8_L9WNCD
XD3 dvss ena sky130_fd_pr__diode_pw2nd_05v5_FT76RJ__3
XXM7 m1_4789_4781# m1_4235_4789# avdd m1_4833_5653# sky130_fd_pr__pfet_g5v0d10v5_6ELFTH
XXM9 m1_4235_4789# m1_3679_4781# avdd m1_4217_5653# sky130_fd_pr__pfet_g5v0d10v5_6ELFTH
XXM8 avss m1_4789_4781# m1_4572_4639# m1_4235_4789# sky130_fd_pr__nfet_g5v0d10v5_6XHUDR
Xsky130_fd_pr__pfet_g5v0d10v5_6ELFTH_0 avdd m1_1507_5567# avdd m1_1507_5567# sky130_fd_pr__pfet_g5v0d10v5_6ELFTH
Xsky130_fd_pr__pfet_01v8_856REK_0 dout rc_osc_level_shifter_0/inb_l dvdd m1_6642_4785#
+ dvdd sky130_fd_pr__pfet_01v8_856REK
Xsky130_fd_pr__pfet_g5v0d10v5_6ELFTH_1 avdd m1_1507_5567# avdd m1_1507_5567# sky130_fd_pr__pfet_g5v0d10v5_6ELFTH
Xsky130_fd_pr__res_xhigh_po_0p35_NVJ5PF_0 m1_7838_1218# m1_9166_1218# m1_3024_3118#
+ m1_3522_1218# m1_2028_3118# m1_1862_1218# m1_4518_1218# m1_6842_1218# m1_7008_3118#
+ m1_9996_3118# m1_8170_1218# m1_5846_1218# m1_6012_3118# m1_7174_1218# m1_4352_3118#
+ m1_1032_3118# m1_5348_3118# m1_8004_3118# m1_3356_3118# m1_2858_1218# m1_9000_3118#
+ m1_8502_1218# m1_3854_1218# m1_9996_3118# m1_5182_1218# m1_10162_1218# m1_2360_3118#
+ m1_7506_1218# m1_1364_3118# m1_7340_3118# m1_4850_1218# m1_5016_3118# m1_8336_3118#
+ m1_6344_3118# m1_6510_1218# m1_4020_3118# m1_534_1218# m1_3024_3118# m1_9332_3118#
+ m1_9498_1218# m1_9378_4056# m1_6178_1218# m1_5182_1218# m1_6012_3118# m1_2028_3118#
+ m1_1530_1218# m1_7008_3118# m1_1032_3118# m1_8004_3118# m1_9830_1218# m1_2526_1218#
+ m1_4684_3118# m1_9000_3118# m1_1198_1218# avss m1_8834_1218# m1_3522_1218# m1_3688_3118#
+ m1_2692_3118# m1_7838_1218# m1_1696_3118# m1_2194_1218# m1_866_1218# m1_4518_1218#
+ m1_6344_3118# m1_5846_1218# m1_9664_3118# m1_9498_1218# m1_3190_1218# m1_7340_3118#
+ m1_1862_1218# m1_3688_3118# m1_6842_1218# m1_700_3118# m1_4684_3118# m1_6178_1218#
+ m1_8502_1218# m1_2858_1218# m1_8336_3118# m1_4186_1218# m1_2692_3118# m1_9332_3118#
+ m1_1696_3118# m1_1198_1218# m1_5348_3118# m1_7506_1218# m1_3854_1218# m1_700_3118#
+ m1_5680_3118# m1_10162_1218# m1_4850_1218# m1_2194_1218# m1_6510_1218# m1_6676_3118#
+ m1_5514_1218# m1_7672_3118# m1_9166_1218# m1_3356_3118# m1_4352_3118# m1_2360_3118#
+ m1_3190_1218# m1_8668_3118# m1_534_1218# m1_4186_1218# m1_6676_3118# m1_8170_1218#
+ m1_9664_3118# m1_1364_3118# m1_9830_1218# m1_1530_1218# m1_5680_3118# avdd m1_7174_1218#
+ m1_8834_1218# m1_7672_3118# m1_5514_1218# m1_4020_3118# m1_5016_3118# m1_8668_3118#
+ m1_2526_1218# m1_866_1218# sky130_fd_pr__res_xhigh_po_0p35_NVJ5PF
Xsky130_fd_pr__res_xhigh_po_0p35_NVJ5PF_1 m1_7652_7168# m1_8980_7168# m1_3170_9068#
+ m1_3336_7168# m1_2174_9068# m1_2008_7168# m1_4664_7168# m1_6656_7168# m1_6822_9068#
+ m1_10142_9068# m1_7984_7168# m1_5992_7168# m1_5826_9068# m1_6988_7168# m1_4166_9068#
+ m1_1178_9068# m1_5162_9068# m1_7818_9068# m1_3170_9068# m1_3004_7168# m1_8814_9068#
+ m1_8648_7168# m1_4000_7168# m1_9810_9068# m1_4996_7168# m1_9976_7168# m1_2174_9068#
+ m1_7652_7168# m1_1178_9068# m1_7154_9068# m1_4664_7168# m1_4830_9068# m1_8150_9068#
+ m1_6158_9068# m1_6656_7168# m1_3834_9068# m1_680_7168# avdd m1_9146_9068# m1_9644_7168#
+ m1_10142_9068# m1_6324_7168# m1_5328_7168# m1_6158_9068# m1_1842_9068# m1_1676_7168#
+ m1_7154_9068# m1_846_9068# m1_8150_9068# m1_9976_7168# m1_2672_7168# m1_4498_9068#
+ m1_9146_9068# m1_1012_7168# avss m1_8980_7168# m1_3668_7168# m1_3502_9068# m1_2506_9068#
+ m1_7984_7168# m1_1510_9068# m1_2008_7168# m1_680_7168# m1_4332_7168# m1_6490_9068#
+ m1_5660_7168# m1_9478_9068# m1_9312_7168# m1_3004_7168# m1_7486_9068# m1_1676_7168#
+ m1_3834_9068# m1_6988_7168# m1_514_9068# m1_4830_9068# m1_5992_7168# m1_8316_7168#
+ m1_2672_7168# m1_8482_9068# m1_4000_7168# avdd m1_9478_9068# m1_1842_9068# m1_1344_7168#
+ m1_5494_9068# m1_7320_7168# m1_3668_7168# m1_846_9068# m1_5826_9068# m1_9378_4056#
+ m1_4996_7168# m1_2340_7168# m1_6324_7168# m1_6822_9068# m1_5660_7168# m1_7818_9068#
+ m1_9312_7168# m1_3502_9068# m1_4498_9068# m1_2506_9068# m1_3336_7168# m1_8814_9068#
+ m1_513_6590# m1_4332_7168# m1_6490_9068# m1_8316_7168# m1_9810_9068# m1_1510_9068#
+ m1_9644_7168# m1_1344_7168# m1_5494_9068# m1_514_9068# m1_7320_7168# m1_8648_7168#
+ m1_7486_9068# m1_5328_7168# m1_4166_9068# m1_5162_9068# m1_8482_9068# m1_2340_7168#
+ m1_1012_7168# sky130_fd_pr__res_xhigh_po_0p35_NVJ5PF
Xsky130_fd_pr__pfet_g5v0d10v5_6ELFTH_2 m1_1507_5567# m1_1507_5567# avdd avdd sky130_fd_pr__pfet_g5v0d10v5_6ELFTH
Xsky130_fd_pr__pfet_g5v0d10v5_6ELFTH_3 avdd rc_osc_level_shifter_0/out_h avdd m1_1507_5567#
+ sky130_fd_pr__pfet_g5v0d10v5_6ELFTH
Xsky130_fd_pr__pfet_01v8_2Z69BZ_0 dvdd m1_6642_4785# dvdd ena sky130_fd_pr__pfet_01v8_2Z69BZ
Xsky130_fd_pr__pfet_g5v0d10v5_6ELFTH_5 avdd m1_1507_5567# avdd m1_5449_5653# sky130_fd_pr__pfet_g5v0d10v5_6ELFTH
Xsky130_fd_pr__pfet_g5v0d10v5_6ELFTH_4 m1_1507_5567# m1_1507_5567# avdd avdd sky130_fd_pr__pfet_g5v0d10v5_6ELFTH
Xsky130_fd_pr__pfet_g5v0d10v5_T537S5_0 m1_2993_5163# avdd m1_6642_4785# dvdd sky130_fd_pr__pfet_g5v0d10v5_T537S5
XXM30 avss m1_2561_4188# avss m1_5241_4130# sky130_fd_pr__nfet_g5v0d10v5_6XHUDR
XXM20 avss m1_4572_4639# avss m1_5241_4130# sky130_fd_pr__nfet_g5v0d10v5_6XHUDR
XXM10 avss m1_4235_4789# m1_4016_4639# m1_3679_4781# sky130_fd_pr__nfet_g5v0d10v5_6XHUDR
XXM21 avss m1_5241_4130# avss m1_5241_4130# sky130_fd_pr__nfet_g5v0d10v5_6XHUDR
XXM33 avss m1_5241_4130# avss rc_osc_level_shifter_0/outb_h sky130_fd_pr__nfet_g5v0d10v5_6XHUDR
.ends

.subckt sky130_fd_sc_hd__decap_3 VGND VNB VPB VPWR
X0 VPWR VGND VPWR VPB sky130_fd_pr__pfet_01v8_hvt ad=0.2262 pd=2.26 as=0 ps=0 w=0.87 l=0.59
X1 VGND VPWR VGND VNB sky130_fd_pr__nfet_01v8 ad=0.143 pd=1.62 as=0 ps=0 w=0.55 l=0.59
.ends

.subckt sky130_fd_sc_hd__inv_4 A VGND VNB VPB VPWR Y
X0 VPWR A Y VPB sky130_fd_pr__pfet_01v8_hvt ad=0.26 pd=2.52 as=0.135 ps=1.27 w=1 l=0.15
X1 Y A VPWR VPB sky130_fd_pr__pfet_01v8_hvt ad=0.135 pd=1.27 as=0.135 ps=1.27 w=1 l=0.15
X2 Y A VGND VNB sky130_fd_pr__nfet_01v8 ad=0.08775 pd=0.92 as=0.169 ps=1.82 w=0.65 l=0.15
X3 VPWR A Y VPB sky130_fd_pr__pfet_01v8_hvt ad=0.135 pd=1.27 as=0.135 ps=1.27 w=1 l=0.15
X4 VGND A Y VNB sky130_fd_pr__nfet_01v8 ad=0.08775 pd=0.92 as=0.08775 ps=0.92 w=0.65 l=0.15
X5 Y A VPWR VPB sky130_fd_pr__pfet_01v8_hvt ad=0.135 pd=1.27 as=0.26 ps=2.52 w=1 l=0.15
X6 VGND A Y VNB sky130_fd_pr__nfet_01v8 ad=0.169 pd=1.82 as=0.08775 ps=0.92 w=0.65 l=0.15
X7 Y A VGND VNB sky130_fd_pr__nfet_01v8 ad=0.08775 pd=0.92 as=0.08775 ps=0.92 w=0.65 l=0.15
.ends

.subckt sky130_fd_pr__nfet_g5v0d10v5_WQT6C6 a_1235_n700# a_3447_n700# a_5659_n700#
+ a_n287_n788# a_761_n700# a_n4079_n788# a_819_n788# a_2657_n700# a_4869_n700# a_5185_n700#
+ a_n1077_n788# a_n3289_n788# a_1867_n700# a_2183_n700# a_345_n788# a_4395_n700# a_n29_n700#
+ a_n2499_n788# a_1393_n700# a_n919_n788# a_6607_n700# a_977_n788# a_n5027_n788# a_3605_n700#
+ a_5817_n700# a_n445_n788# a_3189_n788# a_n187_n700# a_6133_n700# a_n1709_n788# a_n2025_n788#
+ a_n4237_n788# a_2815_n700# a_n6449_n788# a_3131_n700# a_5343_n700# a_2399_n788#
+ a_n1235_n788# a_n3447_n788# a_n5659_n788# a_n3189_n700# a_2341_n700# a_4553_n700#
+ a_503_n788# a_6765_n700# a_n2657_n788# a_n4869_n788# a_n5185_n788# a_n2399_n700#
+ a_1551_n700# a_3763_n700# a_5975_n700# a_1609_n788# a_6291_n700# a_n1867_n788# a_6349_n788#
+ a_n819_n700# a_4137_n788# a_n2183_n788# a_n4395_n788# a_2973_n700# a_n603_n788#
+ a_3347_n788# a_1135_n788# a_n7124_n700# a_n345_n700# a_5559_n788# a_n1393_n788#
+ a_n1609_n700# a_n6607_n788# a_661_n788# a_n6349_n700# a_n4137_n700# a_5501_n700#
+ a_4769_n788# a_2557_n788# a_5085_n788# a_n3605_n788# a_n5817_n788# a_n3347_n700#
+ a_n1135_n700# a_n6133_n788# a_n5559_n700# a_4711_n700# a_6923_n700# a_3979_n788#
+ a_1767_n788# a_n977_n700# a_4295_n788# a_2083_n788# a_n2815_n788# a_n3131_n788#
+ a_n5343_n788# a_n4769_n700# a_n2557_n700# a_3921_n700# a_n5085_n700# a_1293_n788#
+ a_n761_n788# a_6507_n788# a_n2341_n788# a_n3979_n700# a_n1767_n700# a_n4553_n788#
+ a_n6765_n788# a_n4295_n700# a_n2083_n700# a_5717_n788# a_3505_n788# a_6033_n788#
+ a_n503_n700# a_n1551_n788# a_n3763_n788# a_n5975_n788# a_n1293_n700# a_129_n700#
+ a_n6291_n788# a_n6507_n700# a_2715_n788# a_4927_n788# a_3031_n788# a_n2973_n788#
+ a_5243_n788# a_n5717_n700# a_n3505_n700# a_n6033_n700# a_1925_n788# a_4453_n788#
+ a_2241_n788# a_6665_n788# a_n2715_n700# a_n5501_n788# a_n4927_n700# a_n3031_n700#
+ a_n5243_n700# a_1451_n788# a_5875_n788# a_n661_n700# a_3663_n788# a_6191_n788# a_287_n700#
+ a_n4711_n788# a_n1925_n700# a_n6923_n788# a_n4453_n700# a_n2241_n700# a_n6665_n700#
+ a_2873_n788# a_n3921_n788# a_n1451_n700# a_n5875_n700# a_n3663_n700# a_n6191_n700#
+ a_5401_n788# a_n2873_n700# a_6823_n788# a_4611_n788# a_919_n700# a_n5401_n700# a_3821_n788#
+ a_445_n700# a_n6823_n700# a_n4611_n700# a_n3821_n700# a_4079_n700# a_1077_n700#
+ a_3289_n700# a_29_n788# a_2499_n700# a_n6981_n700# a_n129_n788# a_603_n700# a_187_n788#
+ a_5027_n700# a_1709_n700# a_2025_n700# a_4237_n700# a_6449_n700#
X0 a_n6349_n700# a_n6449_n788# a_n6507_n700# a_n7124_n700# sky130_fd_pr__nfet_g5v0d10v5 ad=1.015 pd=7.29 as=1.015 ps=7.29 w=7 l=0.5
X1 a_n5875_n700# a_n5975_n788# a_n6033_n700# a_n7124_n700# sky130_fd_pr__nfet_g5v0d10v5 ad=1.015 pd=7.29 as=1.015 ps=7.29 w=7 l=0.5
X2 a_n3505_n700# a_n3605_n788# a_n3663_n700# a_n7124_n700# sky130_fd_pr__nfet_g5v0d10v5 ad=1.015 pd=7.29 as=1.015 ps=7.29 w=7 l=0.5
X3 a_3605_n700# a_3505_n788# a_3447_n700# a_n7124_n700# sky130_fd_pr__nfet_g5v0d10v5 ad=1.015 pd=7.29 as=1.015 ps=7.29 w=7 l=0.5
X4 a_5975_n700# a_5875_n788# a_5817_n700# a_n7124_n700# sky130_fd_pr__nfet_g5v0d10v5 ad=1.015 pd=7.29 as=1.015 ps=7.29 w=7 l=0.5
X5 a_6449_n700# a_6349_n788# a_6291_n700# a_n7124_n700# sky130_fd_pr__nfet_g5v0d10v5 ad=1.015 pd=7.29 as=1.015 ps=7.29 w=7 l=0.5
X6 a_n6191_n700# a_n6291_n788# a_n6349_n700# a_n7124_n700# sky130_fd_pr__nfet_g5v0d10v5 ad=1.015 pd=7.29 as=1.015 ps=7.29 w=7 l=0.5
X7 a_n977_n700# a_n1077_n788# a_n1135_n700# a_n7124_n700# sky130_fd_pr__nfet_g5v0d10v5 ad=1.015 pd=7.29 as=1.015 ps=7.29 w=7 l=0.5
X8 a_6291_n700# a_6191_n788# a_6133_n700# a_n7124_n700# sky130_fd_pr__nfet_g5v0d10v5 ad=1.015 pd=7.29 as=1.015 ps=7.29 w=7 l=0.5
X9 a_n503_n700# a_n603_n788# a_n661_n700# a_n7124_n700# sky130_fd_pr__nfet_g5v0d10v5 ad=1.015 pd=7.29 as=1.015 ps=7.29 w=7 l=0.5
X10 a_1077_n700# a_977_n788# a_919_n700# a_n7124_n700# sky130_fd_pr__nfet_g5v0d10v5 ad=1.015 pd=7.29 as=1.015 ps=7.29 w=7 l=0.5
X11 a_n5401_n700# a_n5501_n788# a_n5559_n700# a_n7124_n700# sky130_fd_pr__nfet_g5v0d10v5 ad=1.015 pd=7.29 as=1.015 ps=7.29 w=7 l=0.5
X12 a_n2557_n700# a_n2657_n788# a_n2715_n700# a_n7124_n700# sky130_fd_pr__nfet_g5v0d10v5 ad=1.015 pd=7.29 as=1.015 ps=7.29 w=7 l=0.5
X13 a_2657_n700# a_2557_n788# a_2499_n700# a_n7124_n700# sky130_fd_pr__nfet_g5v0d10v5 ad=1.015 pd=7.29 as=1.015 ps=7.29 w=7 l=0.5
X14 a_5501_n700# a_5401_n788# a_5343_n700# a_n7124_n700# sky130_fd_pr__nfet_g5v0d10v5 ad=1.015 pd=7.29 as=1.015 ps=7.29 w=7 l=0.5
X15 a_n4927_n700# a_n5027_n788# a_n5085_n700# a_n7124_n700# sky130_fd_pr__nfet_g5v0d10v5 ad=1.015 pd=7.29 as=1.015 ps=7.29 w=7 l=0.5
X16 a_n4453_n700# a_n4553_n788# a_n4611_n700# a_n7124_n700# sky130_fd_pr__nfet_g5v0d10v5 ad=1.015 pd=7.29 as=1.015 ps=7.29 w=7 l=0.5
X17 a_n29_n700# a_n129_n788# a_n187_n700# a_n7124_n700# sky130_fd_pr__nfet_g5v0d10v5 ad=1.015 pd=7.29 as=1.015 ps=7.29 w=7 l=0.5
X18 a_603_n700# a_503_n788# a_445_n700# a_n7124_n700# sky130_fd_pr__nfet_g5v0d10v5 ad=1.015 pd=7.29 as=1.015 ps=7.29 w=7 l=0.5
X19 a_4553_n700# a_4453_n788# a_4395_n700# a_n7124_n700# sky130_fd_pr__nfet_g5v0d10v5 ad=1.015 pd=7.29 as=1.015 ps=7.29 w=7 l=0.5
X20 a_n6507_n700# a_n6607_n788# a_n6665_n700# a_n7124_n700# sky130_fd_pr__nfet_g5v0d10v5 ad=1.015 pd=7.29 as=1.015 ps=7.29 w=7 l=0.5
X21 a_6607_n700# a_6507_n788# a_6449_n700# a_n7124_n700# sky130_fd_pr__nfet_g5v0d10v5 ad=1.015 pd=7.29 as=1.015 ps=7.29 w=7 l=0.5
X22 a_n3979_n700# a_n4079_n788# a_n4137_n700# a_n7124_n700# sky130_fd_pr__nfet_g5v0d10v5 ad=1.015 pd=7.29 as=1.015 ps=7.29 w=7 l=0.5
X23 a_n1135_n700# a_n1235_n788# a_n1293_n700# a_n7124_n700# sky130_fd_pr__nfet_g5v0d10v5 ad=1.015 pd=7.29 as=1.015 ps=7.29 w=7 l=0.5
X24 a_1235_n700# a_1135_n788# a_1077_n700# a_n7124_n700# sky130_fd_pr__nfet_g5v0d10v5 ad=1.015 pd=7.29 as=1.015 ps=7.29 w=7 l=0.5
X25 a_5659_n700# a_5559_n788# a_5501_n700# a_n7124_n700# sky130_fd_pr__nfet_g5v0d10v5 ad=1.015 pd=7.29 as=1.015 ps=7.29 w=7 l=0.5
X26 a_n5559_n700# a_n5659_n788# a_n5717_n700# a_n7124_n700# sky130_fd_pr__nfet_g5v0d10v5 ad=1.015 pd=7.29 as=1.015 ps=7.29 w=7 l=0.5
X27 a_n2715_n700# a_n2815_n788# a_n2873_n700# a_n7124_n700# sky130_fd_pr__nfet_g5v0d10v5 ad=1.015 pd=7.29 as=1.015 ps=7.29 w=7 l=0.5
X28 a_2815_n700# a_2715_n788# a_2657_n700# a_n7124_n700# sky130_fd_pr__nfet_g5v0d10v5 ad=1.015 pd=7.29 as=1.015 ps=7.29 w=7 l=0.5
X29 a_n3031_n700# a_n3131_n788# a_n3189_n700# a_n7124_n700# sky130_fd_pr__nfet_g5v0d10v5 ad=1.015 pd=7.29 as=1.015 ps=7.29 w=7 l=0.5
X30 a_3131_n700# a_3031_n788# a_2973_n700# a_n7124_n700# sky130_fd_pr__nfet_g5v0d10v5 ad=1.015 pd=7.29 as=1.015 ps=7.29 w=7 l=0.5
X31 a_n4611_n700# a_n4711_n788# a_n4769_n700# a_n7124_n700# sky130_fd_pr__nfet_g5v0d10v5 ad=1.015 pd=7.29 as=1.015 ps=7.29 w=7 l=0.5
X32 a_n1767_n700# a_n1867_n788# a_n1925_n700# a_n7124_n700# sky130_fd_pr__nfet_g5v0d10v5 ad=1.015 pd=7.29 as=1.015 ps=7.29 w=7 l=0.5
X33 a_1867_n700# a_1767_n788# a_1709_n700# a_n7124_n700# sky130_fd_pr__nfet_g5v0d10v5 ad=1.015 pd=7.29 as=1.015 ps=7.29 w=7 l=0.5
X34 a_4711_n700# a_4611_n788# a_4553_n700# a_n7124_n700# sky130_fd_pr__nfet_g5v0d10v5 ad=1.015 pd=7.29 as=1.015 ps=7.29 w=7 l=0.5
X35 a_2183_n700# a_2083_n788# a_2025_n700# a_n7124_n700# sky130_fd_pr__nfet_g5v0d10v5 ad=1.015 pd=7.29 as=1.015 ps=7.29 w=7 l=0.5
X36 a_n2083_n700# a_n2183_n788# a_n2241_n700# a_n7124_n700# sky130_fd_pr__nfet_g5v0d10v5 ad=1.015 pd=7.29 as=1.015 ps=7.29 w=7 l=0.5
X37 a_n4137_n700# a_n4237_n788# a_n4295_n700# a_n7124_n700# sky130_fd_pr__nfet_g5v0d10v5 ad=1.015 pd=7.29 as=1.015 ps=7.29 w=7 l=0.5
X38 a_n3663_n700# a_n3763_n788# a_n3821_n700# a_n7124_n700# sky130_fd_pr__nfet_g5v0d10v5 ad=1.015 pd=7.29 as=1.015 ps=7.29 w=7 l=0.5
X39 a_3763_n700# a_3663_n788# a_3605_n700# a_n7124_n700# sky130_fd_pr__nfet_g5v0d10v5 ad=1.015 pd=7.29 as=1.015 ps=7.29 w=7 l=0.5
X40 a_4237_n700# a_4137_n788# a_4079_n700# a_n7124_n700# sky130_fd_pr__nfet_g5v0d10v5 ad=1.015 pd=7.29 as=1.015 ps=7.29 w=7 l=0.5
X41 a_n819_n700# a_n919_n788# a_n977_n700# a_n7124_n700# sky130_fd_pr__nfet_g5v0d10v5 ad=1.015 pd=7.29 as=1.015 ps=7.29 w=7 l=0.5
X42 a_n5717_n700# a_n5817_n788# a_n5875_n700# a_n7124_n700# sky130_fd_pr__nfet_g5v0d10v5 ad=1.015 pd=7.29 as=1.015 ps=7.29 w=7 l=0.5
X43 a_n661_n700# a_n761_n788# a_n819_n700# a_n7124_n700# sky130_fd_pr__nfet_g5v0d10v5 ad=1.015 pd=7.29 as=1.015 ps=7.29 w=7 l=0.5
X44 a_5817_n700# a_5717_n788# a_5659_n700# a_n7124_n700# sky130_fd_pr__nfet_g5v0d10v5 ad=1.015 pd=7.29 as=1.015 ps=7.29 w=7 l=0.5
X45 a_n6033_n700# a_n6133_n788# a_n6191_n700# a_n7124_n700# sky130_fd_pr__nfet_g5v0d10v5 ad=1.015 pd=7.29 as=1.015 ps=7.29 w=7 l=0.5
X46 a_n3189_n700# a_n3289_n788# a_n3347_n700# a_n7124_n700# sky130_fd_pr__nfet_g5v0d10v5 ad=1.015 pd=7.29 as=1.015 ps=7.29 w=7 l=0.5
X47 a_3289_n700# a_3189_n788# a_3131_n700# a_n7124_n700# sky130_fd_pr__nfet_g5v0d10v5 ad=1.015 pd=7.29 as=1.015 ps=7.29 w=7 l=0.5
X48 a_6133_n700# a_6033_n788# a_5975_n700# a_n7124_n700# sky130_fd_pr__nfet_g5v0d10v5 ad=1.015 pd=7.29 as=1.015 ps=7.29 w=7 l=0.5
X49 a_n4769_n700# a_n4869_n788# a_n4927_n700# a_n7124_n700# sky130_fd_pr__nfet_g5v0d10v5 ad=1.015 pd=7.29 as=1.015 ps=7.29 w=7 l=0.5
X50 a_919_n700# a_819_n788# a_761_n700# a_n7124_n700# sky130_fd_pr__nfet_g5v0d10v5 ad=1.015 pd=7.29 as=1.015 ps=7.29 w=7 l=0.5
X51 a_2025_n700# a_1925_n788# a_1867_n700# a_n7124_n700# sky130_fd_pr__nfet_g5v0d10v5 ad=1.015 pd=7.29 as=1.015 ps=7.29 w=7 l=0.5
X52 a_4869_n700# a_4769_n788# a_4711_n700# a_n7124_n700# sky130_fd_pr__nfet_g5v0d10v5 ad=1.015 pd=7.29 as=1.015 ps=7.29 w=7 l=0.5
X53 a_n5085_n700# a_n5185_n788# a_n5243_n700# a_n7124_n700# sky130_fd_pr__nfet_g5v0d10v5 ad=1.015 pd=7.29 as=1.015 ps=7.29 w=7 l=0.5
X54 a_n187_n700# a_n287_n788# a_n345_n700# a_n7124_n700# sky130_fd_pr__nfet_g5v0d10v5 ad=1.015 pd=7.29 as=1.015 ps=7.29 w=7 l=0.5
X55 a_761_n700# a_661_n788# a_603_n700# a_n7124_n700# sky130_fd_pr__nfet_g5v0d10v5 ad=1.015 pd=7.29 as=1.015 ps=7.29 w=7 l=0.5
X56 a_5185_n700# a_5085_n788# a_5027_n700# a_n7124_n700# sky130_fd_pr__nfet_g5v0d10v5 ad=1.015 pd=7.29 as=1.015 ps=7.29 w=7 l=0.5
X57 a_n2241_n700# a_n2341_n788# a_n2399_n700# a_n7124_n700# sky130_fd_pr__nfet_g5v0d10v5 ad=1.015 pd=7.29 as=1.015 ps=7.29 w=7 l=0.5
X58 a_2341_n700# a_2241_n788# a_2183_n700# a_n7124_n700# sky130_fd_pr__nfet_g5v0d10v5 ad=1.015 pd=7.29 as=1.015 ps=7.29 w=7 l=0.5
X59 a_n6665_n700# a_n6765_n788# a_n6823_n700# a_n7124_n700# sky130_fd_pr__nfet_g5v0d10v5 ad=1.015 pd=7.29 as=1.015 ps=7.29 w=7 l=0.5
X60 a_n3821_n700# a_n3921_n788# a_n3979_n700# a_n7124_n700# sky130_fd_pr__nfet_g5v0d10v5 ad=1.015 pd=7.29 as=1.015 ps=7.29 w=7 l=0.5
X61 a_287_n700# a_187_n788# a_129_n700# a_n7124_n700# sky130_fd_pr__nfet_g5v0d10v5 ad=1.015 pd=7.29 as=1.015 ps=7.29 w=7 l=0.5
X62 a_3921_n700# a_3821_n788# a_3763_n700# a_n7124_n700# sky130_fd_pr__nfet_g5v0d10v5 ad=1.015 pd=7.29 as=1.015 ps=7.29 w=7 l=0.5
X63 a_6765_n700# a_6665_n788# a_6607_n700# a_n7124_n700# sky130_fd_pr__nfet_g5v0d10v5 ad=1.015 pd=7.29 as=1.015 ps=7.29 w=7 l=0.5
X64 a_n1293_n700# a_n1393_n788# a_n1451_n700# a_n7124_n700# sky130_fd_pr__nfet_g5v0d10v5 ad=1.015 pd=7.29 as=1.015 ps=7.29 w=7 l=0.5
X65 a_1393_n700# a_1293_n788# a_1235_n700# a_n7124_n700# sky130_fd_pr__nfet_g5v0d10v5 ad=1.015 pd=7.29 as=1.015 ps=7.29 w=7 l=0.5
X66 a_n3347_n700# a_n3447_n788# a_n3505_n700# a_n7124_n700# sky130_fd_pr__nfet_g5v0d10v5 ad=1.015 pd=7.29 as=1.015 ps=7.29 w=7 l=0.5
X67 a_n2873_n700# a_n2973_n788# a_n3031_n700# a_n7124_n700# sky130_fd_pr__nfet_g5v0d10v5 ad=1.015 pd=7.29 as=1.015 ps=7.29 w=7 l=0.5
X68 a_2973_n700# a_2873_n788# a_2815_n700# a_n7124_n700# sky130_fd_pr__nfet_g5v0d10v5 ad=1.015 pd=7.29 as=1.015 ps=7.29 w=7 l=0.5
X69 a_3447_n700# a_3347_n788# a_3289_n700# a_n7124_n700# sky130_fd_pr__nfet_g5v0d10v5 ad=1.015 pd=7.29 as=1.015 ps=7.29 w=7 l=0.5
X70 a_5027_n700# a_4927_n788# a_4869_n700# a_n7124_n700# sky130_fd_pr__nfet_g5v0d10v5 ad=1.015 pd=7.29 as=1.015 ps=7.29 w=7 l=0.5