** sch_path: /home/tim/gits/chipalooza_projects_2/xschem/user_analog_project_wrapper.sch
.subckt user_analog_project_wrapper vdda1 vdda2 vssa1 vssa2 vccd1 vccd2 vssd1 vssd2 wb_clk_i wb_rst_i wbs_stb_i wbs_cyc_i wbs_we_i
+ wbs_sel_i[3] wbs_sel_i[2] wbs_sel_i[1] wbs_sel_i[0] wbs_dat_i[31] wbs_dat_i[30] wbs_dat_i[29] wbs_dat_i[28] wbs_dat_i[27] wbs_dat_i[26]
+ wbs_dat_i[25] wbs_dat_i[24] wbs_dat_i[23] wbs_dat_i[22] wbs_dat_i[21] wbs_dat_i[20] wbs_dat_i[19] wbs_dat_i[18] wbs_dat_i[17] wbs_dat_i[16]
+ wbs_dat_i[15] wbs_dat_i[14] wbs_dat_i[13] wbs_dat_i[12] wbs_dat_i[11] wbs_dat_i[10] wbs_dat_i[9] wbs_dat_i[8] wbs_dat_i[7] wbs_dat_i[6]
+ wbs_dat_i[5] wbs_dat_i[4] wbs_dat_i[3] wbs_dat_i[2] wbs_dat_i[1] wbs_dat_i[0] wbs_adr_i[31] wbs_adr_i[30] wbs_adr_i[29] wbs_adr_i[28]
+ wbs_adr_i[27] wbs_adr_i[26] wbs_adr_i[25] wbs_adr_i[24] wbs_adr_i[23] wbs_adr_i[22] wbs_adr_i[21] wbs_adr_i[20] wbs_adr_i[19] wbs_adr_i[18]
+ wbs_adr_i[17] wbs_adr_i[16] wbs_adr_i[15] wbs_adr_i[14] wbs_adr_i[13] wbs_adr_i[12] wbs_adr_i[11] wbs_adr_i[10] wbs_adr_i[9] wbs_adr_i[8]
+ wbs_adr_i[7] wbs_adr_i[6] wbs_adr_i[5] wbs_adr_i[4] wbs_adr_i[3] wbs_adr_i[2] wbs_adr_i[1] wbs_adr_i[0] wbs_ack_o wbs_dat_o[31] wbs_dat_o[30]
+ wbs_dat_o[29] wbs_dat_o[28] wbs_dat_o[27] wbs_dat_o[26] wbs_dat_o[25] wbs_dat_o[24] wbs_dat_o[23] wbs_dat_o[22] wbs_dat_o[21] wbs_dat_o[20]
+ wbs_dat_o[19] wbs_dat_o[18] wbs_dat_o[17] wbs_dat_o[16] wbs_dat_o[15] wbs_dat_o[14] wbs_dat_o[13] wbs_dat_o[12] wbs_dat_o[11] wbs_dat_o[10]
+ wbs_dat_o[9] wbs_dat_o[8] wbs_dat_o[7] wbs_dat_o[6] wbs_dat_o[5] wbs_dat_o[4] wbs_dat_o[3] wbs_dat_o[2] wbs_dat_o[1] wbs_dat_o[0]
+ la_data_in[127] la_data_in[126] la_data_in[125] la_data_in[124] la_data_in[123] la_data_in[122] la_data_in[121] la_data_in[120] la_data_in[119]
+ la_data_in[118] la_data_in[117] la_data_in[116] la_data_in[115] la_data_in[114] la_data_in[113] la_data_in[112] la_data_in[111] la_data_in[110]
+ la_data_in[109] la_data_in[108] la_data_in[107] la_data_in[106] la_data_in[105] la_data_in[104] la_data_in[103] la_data_in[102] la_data_in[101]
+ la_data_in[100] la_data_in[99] la_data_in[98] la_data_in[97] la_data_in[96] la_data_in[95] la_data_in[94] la_data_in[93] la_data_in[92]
+ la_data_in[91] la_data_in[90] la_data_in[89] la_data_in[88] la_data_in[87] la_data_in[86] la_data_in[85] la_data_in[84] la_data_in[83]
+ la_data_in[82] la_data_in[81] la_data_in[80] la_data_in[79] la_data_in[78] la_data_in[77] la_data_in[76] la_data_in[75] la_data_in[74]
+ la_data_in[73] la_data_in[72] la_data_in[71] la_data_in[70] la_data_in[69] la_data_in[68] la_data_in[67] la_data_in[66] la_data_in[65]
+ la_data_in[64] la_data_in[63] la_data_in[62] la_data_in[61] la_data_in[60] la_data_in[59] la_data_in[58] la_data_in[57] la_data_in[56]
+ la_data_in[55] la_data_in[54] la_data_in[53] la_data_in[52] la_data_in[51] la_data_in[50] la_data_in[49] la_data_in[48] la_data_in[47]
+ la_data_in[46] la_data_in[45] la_data_in[44] la_data_in[43] la_data_in[42] la_data_in[41] la_data_in[40] la_data_in[39] la_data_in[38]
+ la_data_in[37] la_data_in[36] la_data_in[35] la_data_in[34] la_data_in[33] la_data_in[32] la_data_in[31] la_data_in[30] la_data_in[29]
+ la_data_in[28] la_data_in[27] la_data_in[26] la_data_in[25] la_data_in[24] la_data_in[23] la_data_in[22] la_data_in[21] la_data_in[20]
+ la_data_in[19] la_data_in[18] la_data_in[17] la_data_in[16] la_data_in[15] la_data_in[14] la_data_in[13] la_data_in[12] la_data_in[11]
+ la_data_in[10] la_data_in[9] la_data_in[8] la_data_in[7] la_data_in[6] la_data_in[5] la_data_in[4] la_data_in[3] la_data_in[2] la_data_in[1]
+ la_data_in[0] la_data_out[127] la_data_out[126] la_data_out[125] la_data_out[124] la_data_out[123] la_data_out[122] la_data_out[121]
+ la_data_out[120] la_data_out[119] la_data_out[118] la_data_out[117] la_data_out[116] la_data_out[115] la_data_out[114] la_data_out[113]
+ la_data_out[112] la_data_out[111] la_data_out[110] la_data_out[109] la_data_out[108] la_data_out[107] la_data_out[106] la_data_out[105]
+ la_data_out[104] la_data_out[103] la_data_out[102] la_data_out[101] la_data_out[100] la_data_out[99] la_data_out[98] la_data_out[97]
+ la_data_out[96] la_data_out[95] la_data_out[94] la_data_out[93] la_data_out[92] la_data_out[91] la_data_out[90] la_data_out[89] la_data_out[88]
+ la_data_out[87] la_data_out[86] la_data_out[85] la_data_out[84] la_data_out[83] la_data_out[82] la_data_out[81] la_data_out[80] la_data_out[79]
+ la_data_out[78] la_data_out[77] la_data_out[76] la_data_out[75] la_data_out[74] la_data_out[73] la_data_out[72] la_data_out[71] la_data_out[70]
+ la_data_out[69] la_data_out[68] la_data_out[67] la_data_out[66] la_data_out[65] la_data_out[64] la_data_out[63] la_data_out[62] la_data_out[61]
+ la_data_out[60] la_data_out[59] la_data_out[58] la_data_out[57] la_data_out[56] la_data_out[55] la_data_out[54] la_data_out[53] la_data_out[52]
+ la_data_out[51] la_data_out[50] la_data_out[49] la_data_out[48] la_data_out[47] la_data_out[46] la_data_out[45] la_data_out[44] la_data_out[43]
+ la_data_out[42] la_data_out[41] la_data_out[40] la_data_out[39] la_data_out[38] la_data_out[37] la_data_out[36] la_data_out[35] la_data_out[34]
+ la_data_out[33] la_data_out[32] la_data_out[31] la_data_out[30] la_data_out[29] la_data_out[28] la_data_out[27] la_data_out[26] la_data_out[25]
+ la_data_out[24] la_data_out[23] la_data_out[22] la_data_out[21] la_data_out[20] la_data_out[19] la_data_out[18] la_data_out[17] la_data_out[16]
+ la_data_out[15] la_data_out[14] la_data_out[13] la_data_out[12] la_data_out[11] la_data_out[10] la_data_out[9] la_data_out[8] la_data_out[7]
+ la_data_out[6] la_data_out[5] la_data_out[4] la_data_out[3] la_data_out[2] la_data_out[1] la_data_out[0] la_oenb[127] la_oenb[126] la_oenb[125]
+ la_oenb[124] la_oenb[123] la_oenb[122] la_oenb[121] la_oenb[120] la_oenb[119] la_oenb[118] la_oenb[117] la_oenb[116] la_oenb[115] la_oenb[114]
+ la_oenb[113] la_oenb[112] la_oenb[111] la_oenb[110] la_oenb[109] la_oenb[108] la_oenb[107] la_oenb[106] la_oenb[105] la_oenb[104] la_oenb[103]
+ la_oenb[102] la_oenb[101] la_oenb[100] la_oenb[99] la_oenb[98] la_oenb[97] la_oenb[96] la_oenb[95] la_oenb[94] la_oenb[93] la_oenb[92]
+ la_oenb[91] la_oenb[90] la_oenb[89] la_oenb[88] la_oenb[87] la_oenb[86] la_oenb[85] la_oenb[84] la_oenb[83] la_oenb[82] la_oenb[81]
+ la_oenb[80] la_oenb[79] la_oenb[78] la_oenb[77] la_oenb[76] la_oenb[75] la_oenb[74] la_oenb[73] la_oenb[72] la_oenb[71] la_oenb[70]
+ la_oenb[69] la_oenb[68] la_oenb[67] la_oenb[66] la_oenb[65] la_oenb[64] la_oenb[63] la_oenb[62] la_oenb[61] la_oenb[60] la_oenb[59]
+ la_oenb[58] la_oenb[57] la_oenb[56] la_oenb[55] la_oenb[54] la_oenb[53] la_oenb[52] la_oenb[51] la_oenb[50] la_oenb[49] la_oenb[48]
+ la_oenb[47] la_oenb[46] la_oenb[45] la_oenb[44] la_oenb[43] la_oenb[42] la_oenb[41] la_oenb[40] la_oenb[39] la_oenb[38] la_oenb[37]
+ la_oenb[36] la_oenb[35] la_oenb[34] la_oenb[33] la_oenb[32] la_oenb[31] la_oenb[30] la_oenb[29] la_oenb[28] la_oenb[27] la_oenb[26]
+ la_oenb[25] la_oenb[24] la_oenb[23] la_oenb[22] la_oenb[21] la_oenb[20] la_oenb[19] la_oenb[18] la_oenb[17] la_oenb[16] la_oenb[15]
+ la_oenb[14] la_oenb[13] la_oenb[12] la_oenb[11] la_oenb[10] la_oenb[9] la_oenb[8] la_oenb[7] la_oenb[6] la_oenb[5] la_oenb[4] la_oenb[3]
+ la_oenb[2] la_oenb[1] la_oenb[0] io_in[26] io_in[25] io_in[24] io_in[23] io_in[22] io_in[21] io_in[20] io_in[19] io_in[18] io_in[17]
+ io_in[16] io_in[15] io_in[14] io_in[13] io_in[12] io_in[11] io_in[10] io_in[9] io_in[8] io_in[7] io_in[6] io_in[5] io_in[4] io_in[3]
+ io_in[2] io_in[1] io_in[0] io_in_3v3[26] io_in_3v3[25] io_in_3v3[24] io_in_3v3[23] io_in_3v3[22] io_in_3v3[21] io_in_3v3[20] io_in_3v3[19]
+ io_in_3v3[18] io_in_3v3[17] io_in_3v3[16] io_in_3v3[15] io_in_3v3[14] io_in_3v3[13] io_in_3v3[12] io_in_3v3[11] io_in_3v3[10] io_in_3v3[9]
+ io_in_3v3[8] io_in_3v3[7] io_in_3v3[6] io_in_3v3[5] io_in_3v3[4] io_in_3v3[3] io_in_3v3[2] io_in_3v3[1] io_in_3v3[0] io_out[26] io_out[25]
+ io_out[24] io_out[23] io_out[22] io_out[21] io_out[20] io_out[19] io_out[18] io_out[17] io_out[16] io_out[15] io_out[14] io_out[13]
+ io_out[12] io_out[11] io_out[10] io_out[9] io_out[8] io_out[7] io_out[6] io_out[5] io_out[4] io_out[3] io_out[2] io_out[1] io_out[0]
+ io_oeb[26] io_oeb[25] io_oeb[24] io_oeb[23] io_oeb[22] io_oeb[21] io_oeb[20] io_oeb[19] io_oeb[18] io_oeb[17] io_oeb[16] io_oeb[15]
+ io_oeb[14] io_oeb[13] io_oeb[12] io_oeb[11] io_oeb[10] io_oeb[9] io_oeb[8] io_oeb[7] io_oeb[6] io_oeb[5] io_oeb[4] io_oeb[3] io_oeb[2]
+ io_oeb[1] io_oeb[0] gpio_analog[17] gpio_analog[16] gpio_analog[15] gpio_analog[14] gpio_analog[13] gpio_analog[12] gpio_analog[11]
+ gpio_analog[10] gpio_analog[9] gpio_analog[8] gpio_analog[7] gpio_analog[6] gpio_analog[5] gpio_analog[4] gpio_analog[3] gpio_analog[2]
+ gpio_analog[1] gpio_analog[0] gpio_noesd[17] gpio_noesd[16] gpio_noesd[15] gpio_noesd[14] gpio_noesd[13] gpio_noesd[12] gpio_noesd[11]
+ gpio_noesd[10] gpio_noesd[9] gpio_noesd[8] gpio_noesd[7] gpio_noesd[6] gpio_noesd[5] gpio_noesd[4] gpio_noesd[3] gpio_noesd[2] gpio_noesd[1]
+ gpio_noesd[0] io_analog[10] io_analog[9] io_analog[8] io_analog[7] io_analog[6] io_analog[5] io_analog[4] io_analog[3] io_analog[2]
+ io_analog[1] io_analog[0] io_clamp_high[2] io_clamp_high[1] io_clamp_high[0] io_clamp_low[2] io_clamp_low[1] io_clamp_low[0] user_clock2
+ user_irq[2] user_irq[1] user_irq[0]
*.PININFO vdda1:B vdda2:B vssa1:B vssa2:B vccd1:B vccd2:B vssd1:B vssd2:B wb_clk_i:I wb_rst_i:I wbs_stb_i:I wbs_cyc_i:I wbs_we_i:I
*+ wbs_sel_i[3:0]:I wbs_dat_i[31:0]:I wbs_adr_i[31:0]:I wbs_ack_o:O wbs_dat_o[31:0]:O la_data_in[127:0]:I la_data_out[127:0]:O io_in[26:0]:I
*+ io_in_3v3[26:0]:I user_clock2:I io_out[26:0]:O io_oeb[26:0]:O gpio_analog[17:0]:B gpio_noesd[17:0]:B io_analog[10:0]:B io_clamp_high[2:0]:B
*+ io_clamp_low[2:0]:B user_irq[2:0]:O la_oenb[127:0]:I
x1 vccd1 vccd2 vdda1 vdda2 vssa1 vssa2 io_oeb[26] io_oeb[25] io_oeb[24] io_oeb[23] io_oeb[22] io_oeb[21] io_oeb[20] io_oeb[19]
+ io_oeb[18] io_oeb[17] io_oeb[16] io_oeb[15] io_oeb[14] io_oeb[13] io_oeb[12] io_oeb[11] io_oeb[10] io_oeb[9] io_oeb[8] io_oeb[7] io_oeb[6]
+ io_oeb[5] io_oeb[4] io_oeb[3] io_oeb[2] io_oeb[1] io_oeb[0] io_out[26] io_out[25] io_out[24] io_out[23] io_out[22] io_out[21] io_out[20]
+ io_out[19] io_out[18] io_out[17] io_out[16] io_out[15] io_out[14] io_out[13] io_out[12] io_out[11] io_out[10] io_out[9] io_out[8] io_out[7]
+ io_out[6] io_out[5] io_out[4] io_out[3] io_out[2] io_out[1] io_out[0] gpio_noesd[17] gpio_noesd[16] gpio_noesd[15] gpio_noesd[14]
+ gpio_noesd[13] gpio_noesd[12] gpio_noesd[11] gpio_noesd[10] gpio_noesd[9] gpio_noesd[8] gpio_noesd[7] gpio_noesd[6] gpio_noesd[5] gpio_noesd[4]
+ gpio_noesd[3] gpio_noesd[2] gpio_noesd[1] gpio_noesd[0] gpio_analog[17] gpio_analog[16] gpio_analog[15] gpio_analog[14] gpio_analog[13]
+ gpio_analog[12] gpio_analog[11] gpio_analog[10] gpio_analog[9] gpio_analog[8] gpio_analog[7] gpio_analog[6] gpio_analog[5] gpio_analog[4]
+ gpio_analog[3] gpio_analog[2] gpio_analog[1] gpio_analog[0] io_analog[10] io_analog[9] io_analog[8] io_analog[7] io_analog[6] io_analog[5]
+ io_analog[4] io_analog[3] io_analog[2] io_analog[1] io_analog[0] la_data_out[127] la_data_out[126] la_data_out[125] la_data_out[124]
+ la_data_out[123] la_data_out[122] la_data_out[121] la_data_out[120] la_data_out[119] la_data_out[118] la_data_out[117] la_data_out[116]
+ la_data_out[115] la_data_out[114] la_data_out[113] la_data_out[112] la_data_out[111] la_data_out[110] la_data_out[109] la_data_out[108]
+ la_data_out[107] la_data_out[106] la_data_out[105] la_data_out[104] la_data_out[103] la_data_out[102] la_data_out[101] la_data_out[100]
+ la_data_out[99] la_data_out[98] la_data_out[97] la_data_out[96] la_data_out[95] la_data_out[94] la_data_out[93] la_data_out[92] la_data_out[91]
+ la_data_out[90] la_data_out[89] la_data_out[88] la_data_out[87] la_data_out[86] la_data_out[85] la_data_out[84] la_data_out[83] la_data_out[82]
+ la_data_out[81] la_data_out[80] la_data_out[79] la_data_out[78] la_data_out[77] la_data_out[76] la_data_out[75] la_data_out[74] la_data_out[73]
+ la_data_out[72] la_data_out[71] la_data_out[70] la_data_out[69] la_data_out[68] la_data_out[67] la_data_out[66] la_data_out[65] la_data_out[64]
+ la_data_out[63] la_data_out[62] la_data_out[61] la_data_out[60] la_data_out[59] la_data_out[58] la_data_out[57] la_data_out[56] la_data_out[55]
+ la_data_out[54] la_data_out[53] la_data_out[52] la_data_out[51] la_data_out[50] la_data_out[49] la_data_out[48] la_data_out[47] la_data_out[46]
+ la_data_out[45] la_data_out[44] la_data_out[43] la_data_out[42] la_data_out[41] la_data_out[40] la_data_out[39] la_data_out[38] la_data_out[37]
+ la_data_out[36] la_data_out[35] la_data_out[34] la_data_out[33] la_data_out[32] la_data_out[31] la_data_out[30] la_data_out[29] la_data_out[28]
+ la_data_out[27] la_data_out[26] la_data_out[25] la_data_out[24] la_data_out[23] la_data_out[22] la_data_out[21] la_data_out[20] la_data_out[19]
+ la_data_out[18] la_data_out[17] la_data_out[16] la_data_out[15] la_data_out[14] la_data_out[13] la_data_out[12] la_data_out[11] la_data_out[10]
+ la_data_out[9] la_data_out[8] la_data_out[7] la_data_out[6] la_data_out[5] la_data_out[4] la_data_out[3] la_data_out[2] la_data_out[1]
+ la_data_out[0] la_data_in[127] la_data_in[126] la_data_in[125] la_data_in[124] la_data_in[123] la_data_in[122] la_data_in[121] la_data_in[120]
+ la_data_in[119] la_data_in[118] la_data_in[117] la_data_in[116] la_data_in[115] la_data_in[114] la_data_in[113] la_data_in[112] la_data_in[111]
+ la_data_in[110] la_data_in[109] la_data_in[108] la_data_in[107] la_data_in[106] la_data_in[105] la_data_in[104] la_data_in[103] la_data_in[102]
+ la_data_in[101] la_data_in[100] la_data_in[99] la_data_in[98] la_data_in[97] la_data_in[96] la_data_in[95] la_data_in[94] la_data_in[93]
+ la_data_in[92] la_data_in[91] la_data_in[90] la_data_in[89] la_data_in[88] la_data_in[87] la_data_in[86] la_data_in[85] la_data_in[84]
+ la_data_in[83] la_data_in[82] la_data_in[81] la_data_in[80] la_data_in[79] la_data_in[78] la_data_in[77] la_data_in[76] la_data_in[75]
+ la_data_in[74] la_data_in[73] la_data_in[72] la_data_in[71] la_data_in[70] la_data_in[69] la_data_in[68] la_data_in[67] la_data_in[66]
+ la_data_in[65] la_data_in[64] la_data_in[63] la_data_in[62] la_data_in[61] la_data_in[60] la_data_in[59] la_data_in[58] la_data_in[57]
+ la_data_in[56] la_data_in[55] la_data_in[54] la_data_in[53] la_data_in[52] la_data_in[51] la_data_in[50] la_data_in[49] la_data_in[48]
+ la_data_in[47] la_data_in[46] la_data_in[45] la_data_in[44] la_data_in[43] la_data_in[42] la_data_in[41] la_data_in[40] la_data_in[39]
+ la_data_in[38] la_data_in[37] la_data_in[36] la_data_in[35] la_data_in[34] la_data_in[33] la_data_in[32] la_data_in[31] la_data_in[30]
+ la_data_in[29] la_data_in[28] la_data_in[27] la_data_in[26] la_data_in[25] la_data_in[24] la_data_in[23] la_data_in[22] la_data_in[21]
+ la_data_in[20] la_data_in[19] la_data_in[18] la_data_in[17] la_data_in[16] la_data_in[15] la_data_in[14] la_data_in[13] la_data_in[12]
+ la_data_in[11] la_data_in[10] la_data_in[9] la_data_in[8] la_data_in[7] la_data_in[6] la_data_in[5] la_data_in[4] la_data_in[3] la_data_in[2]
+ la_data_in[1] la_data_in[0] vssd2 vssd1 chipalooza_testchip2
.ends

* expanding   symbol:  chipalooza_testchip2.sym # of pins=15
** sym_path: /home/tim/gits/chipalooza_projects_2/xschem/chipalooza_testchip2.sym
** sch_path: /home/tim/gits/chipalooza_projects_2/xschem/chipalooza_testchip2.sch
.subckt chipalooza_testchip2 vccd1 vccd2 vdda1 vdda2 vssa1 vssa2 io_oeb[26] io_oeb[25] io_oeb[24] io_oeb[23] io_oeb[22] io_oeb[21]
+ io_oeb[20] io_oeb[19] io_oeb[18] io_oeb[17] io_oeb[16] io_oeb[15] io_oeb[14] io_oeb[13] io_oeb[12] io_oeb[11] io_oeb[10] io_oeb[9] io_oeb[8]
+ io_oeb[7] io_oeb[6] io_oeb[5] io_oeb[4] io_oeb[3] io_oeb[2] io_oeb[1] io_oeb[0] io_out[26] io_out[25] io_out[24] io_out[23] io_out[22]
+ io_out[21] io_out[20] io_out[19] io_out[18] io_out[17] io_out[16] io_out[15] io_out[14] io_out[13] io_out[12] io_out[11] io_out[10]
+ io_out[9] io_out[8] io_out[7] io_out[6] io_out[5] io_out[4] io_out[3] io_out[2] io_out[1] io_out[0] gpio_noesd[17] gpio_noesd[16]
+ gpio_noesd[15] gpio_noesd[14] gpio_noesd[13] gpio_noesd[12] gpio_noesd[11] gpio_noesd[10] gpio_noesd[9] gpio_noesd[8] gpio_noesd[7]
+ gpio_noesd[6] gpio_noesd[5] gpio_noesd[4] gpio_noesd[3] gpio_noesd[2] gpio_noesd[1] gpio_noesd[0] gpio_analog[17] gpio_analog[16]
+ gpio_analog[15] gpio_analog[14] gpio_analog[13] gpio_analog[12] gpio_analog[11] gpio_analog[10] gpio_analog[9] gpio_analog[8] gpio_analog[7]
+ gpio_analog[6] gpio_analog[5] gpio_analog[4] gpio_analog[3] gpio_analog[2] gpio_analog[1] gpio_analog[0] io_analog[10] io_analog[9] io_analog[8]
+ io_analog[7] io_analog[6] io_analog[5] io_analog[4] io_analog[3] io_analog[2] io_analog[1] io_analog[0] la_data_out[127] la_data_out[126]
+ la_data_out[125] la_data_out[124] la_data_out[123] la_data_out[122] la_data_out[121] la_data_out[120] la_data_out[119] la_data_out[118]
+ la_data_out[117] la_data_out[116] la_data_out[115] la_data_out[114] la_data_out[113] la_data_out[112] la_data_out[111] la_data_out[110]
+ la_data_out[109] la_data_out[108] la_data_out[107] la_data_out[106] la_data_out[105] la_data_out[104] la_data_out[103] la_data_out[102]
+ la_data_out[101] la_data_out[100] la_data_out[99] la_data_out[98] la_data_out[97] la_data_out[96] la_data_out[95] la_data_out[94] la_data_out[93]
+ la_data_out[92] la_data_out[91] la_data_out[90] la_data_out[89] la_data_out[88] la_data_out[87] la_data_out[86] la_data_out[85] la_data_out[84]
+ la_data_out[83] la_data_out[82] la_data_out[81] la_data_out[80] la_data_out[79] la_data_out[78] la_data_out[77] la_data_out[76] la_data_out[75]
+ la_data_out[74] la_data_out[73] la_data_out[72] la_data_out[71] la_data_out[70] la_data_out[69] la_data_out[68] la_data_out[67] la_data_out[66]
+ la_data_out[65] la_data_out[64] la_data_out[63] la_data_out[62] la_data_out[61] la_data_out[60] la_data_out[59] la_data_out[58] la_data_out[57]
+ la_data_out[56] la_data_out[55] la_data_out[54] la_data_out[53] la_data_out[52] la_data_out[51] la_data_out[50] la_data_out[49] la_data_out[48]
+ la_data_out[47] la_data_out[46] la_data_out[45] la_data_out[44] la_data_out[43] la_data_out[42] la_data_out[41] la_data_out[40] la_data_out[39]
+ la_data_out[38] la_data_out[37] la_data_out[36] la_data_out[35] la_data_out[34] la_data_out[33] la_data_out[32] la_data_out[31] la_data_out[30]
+ la_data_out[29] la_data_out[28] la_data_out[27] la_data_out[26] la_data_out[25] la_data_out[24] la_data_out[23] la_data_out[22] la_data_out[21]
+ la_data_out[20] la_data_out[19] la_data_out[18] la_data_out[17] la_data_out[16] la_data_out[15] la_data_out[14] la_data_out[13] la_data_out[12]
+ la_data_out[11] la_data_out[10] la_data_out[9] la_data_out[8] la_data_out[7] la_data_out[6] la_data_out[5] la_data_out[4] la_data_out[3]
+ la_data_out[2] la_data_out[1] la_data_out[0] la_data_in[127] la_data_in[126] la_data_in[125] la_data_in[124] la_data_in[123] la_data_in[122]
+ la_data_in[121] la_data_in[120] la_data_in[119] la_data_in[118] la_data_in[117] la_data_in[116] la_data_in[115] la_data_in[114] la_data_in[113]
+ la_data_in[112] la_data_in[111] la_data_in[110] la_data_in[109] la_data_in[108] la_data_in[107] la_data_in[106] la_data_in[105] la_data_in[104]
+ la_data_in[103] la_data_in[102] la_data_in[101] la_data_in[100] la_data_in[99] la_data_in[98] la_data_in[97] la_data_in[96] la_data_in[95]
+ la_data_in[94] la_data_in[93] la_data_in[92] la_data_in[91] la_data_in[90] la_data_in[89] la_data_in[88] la_data_in[87] la_data_in[86]
+ la_data_in[85] la_data_in[84] la_data_in[83] la_data_in[82] la_data_in[81] la_data_in[80] la_data_in[79] la_data_in[78] la_data_in[77]
+ la_data_in[76] la_data_in[75] la_data_in[74] la_data_in[73] la_data_in[72] la_data_in[71] la_data_in[70] la_data_in[69] la_data_in[68]
+ la_data_in[67] la_data_in[66] la_data_in[65] la_data_in[64] la_data_in[63] la_data_in[62] la_data_in[61] la_data_in[60] la_data_in[59]
+ la_data_in[58] la_data_in[57] la_data_in[56] la_data_in[55] la_data_in[54] la_data_in[53] la_data_in[52] la_data_in[51] la_data_in[50]
+ la_data_in[49] la_data_in[48] la_data_in[47] la_data_in[46] la_data_in[45] la_data_in[44] la_data_in[43] la_data_in[42] la_data_in[41]
+ la_data_in[40] la_data_in[39] la_data_in[38] la_data_in[37] la_data_in[36] la_data_in[35] la_data_in[34] la_data_in[33] la_data_in[32]
+ la_data_in[31] la_data_in[30] la_data_in[29] la_data_in[28] la_data_in[27] la_data_in[26] la_data_in[25] la_data_in[24] la_data_in[23]
+ la_data_in[22] la_data_in[21] la_data_in[20] la_data_in[19] la_data_in[18] la_data_in[17] la_data_in[16] la_data_in[15] la_data_in[14]
+ la_data_in[13] la_data_in[12] la_data_in[11] la_data_in[10] la_data_in[9] la_data_in[8] la_data_in[7] la_data_in[6] la_data_in[5] la_data_in[4]
+ la_data_in[3] la_data_in[2] la_data_in[1] la_data_in[0] vssd2 vssd1
*.PININFO vdda1:I vssa1:I vccd2:I vdda2:I vssa2:I gpio_noesd[17:0]:B gpio_analog[17:0]:B la_data_in[127:0]:I io_out[26:0]:O
*+ la_data_out[127:0]:O io_oeb[26:0]:O io_analog[10:0]:B vssd2:I vssd1:I vccd1:I
x2 la_data_out[47] vdda2 vssa2 vssd2 vccd2 vdd_spare_3 power_stage
x3 la_data_out[46] vdda2 vssa2 vssd2 vccd2 io_analog[10] power_stage
x4 la_data_out[45] vccd2 vssd2 vssd2 vccd2 io_analog[9] power_stage
x5 la_data_out[44] vdda2 vssa2 vssd2 vccd2 io_analog[8] power_stage
x6 la_data_out[43] vdda2 vssa2 vssd2 vccd2 io_analog[7] power_stage
x7 la_data_out[42] vdda2 vssa2 vssd2 vccd2 io_analog[6] power_stage
x8 la_data_out[41] vccd2 vssd2 vssd2 vccd2 io_analog[5] power_stage
x9 la_data_out[48] vdda1 vssa1 vssd1 vccd1 io_analog[4] power_stage
x10 la_data_out[49] vdda1 vssa1 vssd1 vccd1 vdd_spare_2 power_stage
x11 la_data_out[51] vccd1 vssd1 vssd1 vccd1 vdd_spare_1 power_stage
x12 la_data_out[50] vdda1 vssa1 vssd1 vccd1 io_analog[3] power_stage
x13 la_data_out[52] vdda1 vssa1 vssd1 vccd1 io_analog[2] power_stage
x14 la_data_out[53] vdda1 vssa1 vssd1 vccd1 io_analog[1] power_stage
x15 la_data_out[54] vdda1 vssa1 vssd1 vccd1 io_analog[0] power_stage
R1 vssd1 io_oeb[7] sky130_fd_pr__res_generic_m3 W=1 L=1 m=1
R2 vssd1 io_oeb[8] sky130_fd_pr__res_generic_m3 W=1 L=1 m=1
R3 vssd1 io_oeb[10] sky130_fd_pr__res_generic_m3 W=1 L=1 m=1
R4 vssd1 io_oeb[11] sky130_fd_pr__res_generic_m3 W=1 L=1 m=1
R5 vssd1 io_oeb[12] sky130_fd_pr__res_generic_m3 W=1 L=1 m=1
R6 vssd1 io_oeb[13] sky130_fd_pr__res_generic_m3 W=1 L=1 m=1
R7 vssd2 io_oeb[14] sky130_fd_pr__res_generic_m3 W=1 L=1 m=1
R8 vssd2 io_oeb[15] sky130_fd_pr__res_generic_m3 W=1 L=1 m=1
R9 vssd2 io_oeb[16] sky130_fd_pr__res_generic_m3 W=1 L=1 m=1
R10 vssd2 io_oeb[17] sky130_fd_pr__res_generic_m3 W=1 L=1 m=1
R11 vssd2 io_oeb[18] sky130_fd_pr__res_generic_m3 W=1 L=1 m=1
R12 vssd2 io_oeb[19] sky130_fd_pr__res_generic_m3 W=1 L=1 m=1
R13 vssd2 io_oeb[20] sky130_fd_pr__res_generic_m3 W=1 L=1 m=1
x16 vccd1 vssa1 vssd1 io_analog[1] la_oenb[107] rheostat_vh la_data_out[108] la_oenb[108] la_data_out[109] rheostat_out
+ la_oenb[109] la_data_out[110] la_oenb[110] la_data_out[111] rheostat_vl sky130_ef_ip__rheostat_8bit
x18 vccd1 vssd1 la_oenb[91] vdd_spare_2 sample_out sample_in la_data_out[91] vssa1 sky130_ef_ip__samplehold
x19 la_data_out[26] la_oenb[25] la_data_out[25] la_oenb[24] la_data_out[24] la_oenb[23] la_data_out[23] la_oenb[22]
+ la_data_out[22] la_oenb[21] io_analog[7] vccd2 vssd2 vssa2 cdac_vh cdac_vl cdac_out la_oenb[26] net1 la_data_out[21] la_oenb[20]
+ sky130_ef_ip__cdac3v_12bit
x20 vccd1 io_analog[3] la_data_out[107] io_out[10] ulpcomp_vinn ulpcomp_vinp la_oenb[106] vssd1 vssa1 sky130_icrg_ip__ulpcomp2
X21 io_analog[9] vssd2 la_oenb[29] vref_vbg vref_vptat la_data_out[29] la_oenb[28] la_data_out[28] vccd2 vssd2 la_oenb[27]
+ vref_vbgsc vref_vbgtg sky130_ak_ip__cmos_vref
x22 la_data_out[20] vccd2 io_analog[6] vssd2 vssa2 io_out[21] sky130_ef_ip__rc_osc_16M
x23 audio_out_p io_analog[5] vccd2 io_in[26] io_in[25] vssd2 audio_out_n sky130_iic_ip__audiodac_drv_lite
x24 io_analog[10] ldo_vout vssa2 la_oenb[30] vbg la_data_out[30] vccd2 vssd2 sky130_am_ip__ldo_01v8
x25 la_oenb[90] vccd1 io_analog[4] vssd1 vssa1 io_out[13] sky130_ef_ip__rc_osc_500k
x26 vbg io_out[7] vssa1 io_analog[2] vccd1 io_out[8] vssd1 por_outh[1] por_outh[0] sky130_sw_ip__bgrref_por
x27 vccd1 vssa1 vssd1 io_analog[0] la_oenb[111] rdac_vh la_data_out[112] la_oenb[112] la_data_out[113] rdac_out la_oenb[113]
+ la_data_out[114] la_oenb[115] la_oenb[114] la_data_out[115] rdac_vl sky130_ef_ip__rdac3v_8bit
x29 la_oenb[35] idac_ref_in vbg la_data_out[35] vccd2 vssd2 vdd_spare_3 la_data_out[31] la_oenb[31] la_data_out[32] la_oenb[32]
+ la_data_out[33] la_oenb[33] la_data_out[34] la_oenb[34] vssa2 idac_src_out idac_snk_out sky130_ef_ip__idac3v_8bit
* noconn #net1
x1 vdda2 vccd2 vssd2 vssa2 gpio_noesd[7] la_data_out[18] la_oenb[18] idac_src_out la_data_out[19] la_oenb[19] gpio_noesd[7]
+ vref_vptat switch_array_2
x30 vdda2 vccd2 vssd2 vssa2 gpio_noesd[8] la_data_out[16] la_oenb[16] idac_snk_out la_data_out[17] la_oenb[17] gpio_noesd[8]
+ vref_vbg switch_array_2
x31 vdda2 vccd2 vssd2 vssa2 gpio_noesd[9] la_data_out[14] la_oenb[14] ldo_vout la_data_out[15] la_oenb[15] gpio_noesd[9]
+ vref_vbgsc switch_array_2
x32 vdda2 vccd2 vssd2 vssa2 gpio_noesd[10] la_data_out[12] la_oenb[12] idac_ref_in la_data_out[13] la_oenb[13] gpio_noesd[10]
+ vref_vbgtg switch_array_2
x33 vdda2 vccd2 vssd2 vssa2 gpio_noesd[11] la_data_out[10] la_oenb[10] ccomp_vinp la_data_out[11] la_oenb[11] gpio_noesd[11]
+ cdac_vh switch_array_2
x34 vdda2 vccd2 vssd2 vssa2 gpio_noesd[12] la_data_out[8] la_oenb[8] ccomp_vinm la_data_out[9] la_oenb[9] gpio_noesd[12] cdac_vl
+ switch_array_2
x35 vdda2 vccd2 vssd2 vssa2 gpio_noesd[13] la_data_out[6] la_oenb[6] pll_fin la_data_out[7] la_oenb[7] gpio_noesd[13] cdac_out
+ switch_array_2
x36 vdda2 vccd2 vssd2 vssa2 gpio_noesd[14] la_data_out[4] la_oenb[4] pll_ibias la_data_out[5] la_oenb[5] gpio_noesd[14] net2
+ switch_array_2
x37 vdda2 vccd2 vssd2 vssa2 gpio_noesd[15] la_data_out[2] la_oenb[2] pll_vctrl_in la_data_out[3] la_oenb[3] gpio_noesd[15]
+ audio_out_n switch_array_2
x38 vdda2 vccd2 vssd2 vssa2 gpio_noesd[16] la_data_out[0] la_oenb[0] net3 la_data_out[1] la_oenb[1] gpio_noesd[16] audio_out_p
+ switch_array_2
x40 vdda1 vccd1 vssd1 vssa1 gpio_noesd[6] la_oenb[117] la_data_out[117] sample_out la_oenb[116] la_data_out[116] gpio_noesd[6]
+ ulpcomp_vinn switch_array_2
x41 vdda1 vccd1 vssd1 vssa1 gpio_noesd[5] la_oenb[119] la_data_out[119] sample_in la_oenb[118] la_data_out[118] gpio_noesd[5]
+ por_outh[1] switch_array_2
x42 vdda1 vccd1 vssd1 vssa1 gpio_noesd[4] la_oenb[121] la_data_out[121] ulpcomp_vinp la_oenb[120] la_data_out[120] gpio_noesd[4]
+ pll_lf switch_array_2
x43 vdda1 vccd1 vssd1 vssa1 gpio_noesd[3] la_oenb[123] la_data_out[123] rdac_vh la_oenb[122] la_data_out[122] gpio_noesd[3]
+ rheostat_vh switch_array_2
x45 vdda1 vccd1 vssd1 vssa1 gpio_noesd[1] la_oenb[125] la_data_out[125] rdac_vl la_oenb[124] la_data_out[124] gpio_noesd[1]
+ rheostat_vl switch_array_2
x46 vdda1 vccd1 vssd1 vssa1 gpio_noesd[0] la_oenb[127] la_data_out[127] rheostat_out la_oenb[126] la_data_out[126] gpio_noesd[0]
+ rdac_out switch_array_2
x39 io_out[17] vccd2 vssd2 io_analog[8] vssa2 ccomp_vinp ccomp_vinm vssa2 la_data_out[27] sky130_ef_ip__ccomp3v_cl
R14 rheostat_vh io_in_3v3[5] sky130_fd_pr__res_generic_m3 W=1 L=1 m=1
R15 rheostat_vl net4 sky130_fd_pr__res_generic_m3 W=1 L=1 m=1
R16 rdac_vh io_in_3v3[3] sky130_fd_pr__res_generic_m3 W=1 L=1 m=1
R17 rdac_vl io_in_3v3[4] sky130_fd_pr__res_generic_m3 W=1 L=1 m=1
R18 gpio_analog[17] vbg sky130_fd_pr__res_generic_m3 W=1 L=1 m=1
x17 la_oenb[95] la_data_out[96] vdd_spare_1 la_oenb[103] la_data_out[95] la_oenb[96] la_oenb[102] vssd1 la_oenb[94]
+ la_data_out[97] io_out[20] io_out[11] la_data_out[94] la_oenb[97] pll_fin io_out[12] la_oenb[93] la_data_out[98] pll_ibias io_out[15] la_oenb[98]
+ la_data_out[104] la_data_out[103] la_data_out[99] pll_vctrl_in la_oenb[104] la_data_out[102] la_data_out[105] la_oenb[101] io_out[16] la_oenb[105]
+ io_out[14] la_data_out[101] pll_lf la_data_out[106] la_oenb[100] la_data_out[100] io_out[19] la_data_out[93] io_out[18] la_oenb[92]
+ la_data_out[92] sky130_aa_ip__programmable_pll
R19 vssd2 io_oeb[21] sky130_fd_pr__res_generic_m3 W=1 L=1 m=1
.ends


* expanding   symbol:  power_stage.sym # of pins=6
** sym_path: /home/tim/gits/chipalooza_projects_2/dependencies/sky130_ef_ip__analog_switches/xschem/power_stage.sym
** sch_path: /home/tim/gits/chipalooza_projects_2/dependencies/sky130_ef_ip__analog_switches/xschem/power_stage.sch
.subckt power_stage P_IN VDD_PWR VSS DVSS DVDD SW_NODE
*.PININFO P_IN:I SW_NODE:I VDD_PWR:I VSS:I DVSS:I DVDD:I
XM14 SW_NODE P_DRIVE VDD_PWR VDD_PWR sky130_fd_pr__pfet_g5v0d10v5 L=0.5 W=4.38 nf=1 m=4512
x2 net1 net2 P_DRIVE VDD_PWR VSS DVSS gate_drive
x1 P_IN DVSS DVSS DVDD DVDD net1 sky130_fd_sc_hd__inv_4
x3 net1 DVSS DVSS DVDD DVDD net2 sky130_fd_sc_hd__inv_4
x4[1] DVSS DVSS DVDD DVDD sky130_fd_sc_hd__decap_3
x4[0] DVSS DVSS DVDD DVDD sky130_fd_sc_hd__decap_3
x6[2] DVSS DVDD sky130_fd_sc_hd__tapvpwrvgnd_1
x6[1] DVSS DVDD sky130_fd_sc_hd__tapvpwrvgnd_1
x6[0] DVSS DVDD sky130_fd_sc_hd__tapvpwrvgnd_1
x9 P_IN DVSS DVSS DVDD DVDD sky130_fd_sc_hd__diode_2
.ends


* expanding   symbol:  sky130_ef_ip__rheostat_8bit.sym # of pins=15
** sym_path: /home/tim/gits/chipalooza_projects_2/dependencies/sky130_ef_ip__rheostat_8bit/xschem/sky130_ef_ip__rheostat_8bit.sym
** sch_path: /home/tim/gits/chipalooza_projects_2/dependencies/sky130_ef_ip__rheostat_8bit/xschem/sky130_ef_ip__rheostat_8bit.sch
.subckt sky130_ef_ip__rheostat_8bit dvdd vss dvss vdd b0 Vhigh b1 b2 b3 out b4 b5 b6 b7 Vlow
*.PININFO out:B vss:B vdd:B Vhigh:B Vlow:B b0:I b1:I b2:I b3:I b4:I b5:I b6:I b7:I dvdd:B dvss:B
x1 vdd vss b3a b4a b3b b4b b5a Vhigh b6a b0a net3 b6b b5b b0b b1a b1b b2a b2b net1 net6 net5 rheo_half
x2 vdd vss b3a b4a b3b b4b b5a net6 b6a b0a net5 b6b b5b b0b b1a b1b b2a b2b net2 Vlow net4 rheo_half
x3 vdd b7b out net1 b7a vss passtrans
x7 vdd dvdd b7a b7b b7 dvss rheo_level_shifter
x8 vdd dvdd b6a b6b b6 dvss rheo_level_shifter